#======================================================================

# CRYSTAL DATA

#----------------------------------------------------------------------

data_VESTA_phase_1


_chemical_name_common                  ''
_cell_length_a                         10.94970
_cell_length_b                         10.47560
_cell_length_c                         7.75737
_cell_angle_alpha                      90
_cell_angle_beta                       90
_cell_angle_gamma                      90
_space_group_name_H-M_alt              'P 1'
_space_group_IT_number                 1

loop_
_space_group_symop_operation_xyz
   'x, y, z'

loop_
   _atom_site_label
   _atom_site_occupancy
   _atom_site_fract_x
   _atom_site_fract_y
   _atom_site_fract_z
   _atom_site_adp_type
   _atom_site_B_iso_or_equiv
   _atom_site_type_symbol
   W1         1.0     0.135076      0.895086      0.717409     Biso  1.000000 W
   W2         1.0     0.140522      0.407886      0.225633     Biso  1.000000 W
   W3         1.0     0.145479      0.885132      0.226581     Biso  1.000000 W
   W4         1.0     0.151931      0.398727      0.716472     Biso  1.000000 W
   W5         1.0     0.371270      0.152697      0.281978     Biso  1.000000 W
   W6         1.0     0.380930      0.141134      0.774464     Biso  1.000000 W
   W7         1.0     0.382219      0.655802      0.774869     Biso  1.000000 W
   W8         1.0     0.389969      0.644233      0.282403     Biso  1.000000 W
   W9         1.0     0.611349      0.397435      0.717427     Biso  1.000000 W
   W10        1.0     0.615519      0.905090      0.225749     Biso  1.000000 W
   W11        1.0     0.621706      0.389233      0.226393     Biso  1.000000 W
   W12        1.0     0.627304      0.896864      0.716560     Biso  1.000000 W
   W13        1.0     0.847643      0.651475      0.282655     Biso  1.000000 W
   W14        1.0     0.855583      0.639669      0.774843     Biso  1.000000 W
   W15        1.0     0.858882      0.158274      0.774646     Biso  1.000000 W
   W16        1.0     0.864456      0.146806      0.282058     Biso  1.000000 W
   O1         1.0    -0.024521      0.792037      0.718822     Biso  1.000000 O
   O2         1.0    -0.024284      0.502665      0.221082     Biso  1.000000 O
   O3         1.0    -0.019582     -0.002026      0.286003     Biso  1.000000 O
   O4         1.0    -0.019343      0.299913      0.774647     Biso  1.000000 O
   O5         1.0     0.021815      0.746198      0.268926     Biso  1.000000 O
   O6         1.0     0.021983      0.050318      0.723037     Biso  1.000000 O
   O7         1.0     0.023985      0.546054      0.770004     Biso  1.000000 O
   O8         1.0     0.024606      0.251337      0.237192     Biso  1.000000 O
   O9         1.0     0.118623      0.897217     -0.007792     Biso  1.000000 O
   O10        1.0     0.118944      0.402891      0.491571     Biso  1.000000 O
   O11        1.0     0.166803      0.890454      0.492037     Biso  1.000000 O
   O12        1.0     0.169023      0.397504     -0.008308     Biso  1.000000 O
   O13        1.0     0.237523      0.048327      0.240309     Biso  1.000000 O
   O14        1.0     0.238541      0.748613      0.769625     Biso  1.000000 O
   O15        1.0     0.240223      0.548705      0.269895     Biso  1.000000 O
   O16        1.0     0.240391      0.248911      0.721280     Biso  1.000000 O
   O17        1.0     0.281945     -0.002654      0.772309     Biso  1.000000 O
   O18        1.0     0.282046      0.299966      0.286651     Biso  1.000000 O
   O19        1.0     0.286453      0.502556      0.717677     Biso  1.000000 O
   O20        1.0     0.286793      0.792388      0.222157     Biso  1.000000 O
   O21        1.0     0.375898      0.174823      0.007960     Biso  1.000000 O
   O22        1.0     0.380748      0.673927      0.508143     Biso  1.000000 O
   O23        1.0     0.383062      0.124044      0.507901     Biso  1.000000 O
   O24        1.0     0.385316      0.621922      0.008308     Biso  1.000000 O
   O25        1.0     0.475762      0.294643      0.719288     Biso  1.000000 O
   O26        1.0     0.475841      0.002629      0.220992     Biso  1.000000 O
   O27        1.0     0.480457      0.497900      0.286486     Biso  1.000000 O
   O28        1.0     0.480687      0.797156      0.774419     Biso  1.000000 O
   O29        1.0     0.521932      0.248918      0.268193     Biso  1.000000 O
   O30        1.0     0.521953      0.547635      0.722672     Biso  1.000000 O
   O31        1.0     0.524253      0.048516      0.770491     Biso  1.000000 O
   O32        1.0     0.524836      0.748681      0.238029     Biso  1.000000 O
   O33        1.0     0.593895      0.900553      0.491829     Biso  1.000000 O
   O34        1.0     0.594656      0.399958     -0.007990     Biso  1.000000 O
   O35        1.0     0.642618      0.394058      0.491925     Biso  1.000000 O
   O36        1.0     0.645010      0.895444     -0.007991     Biso  1.000000 O
   O37        1.0     0.713594      0.546471      0.239573     Biso  1.000000 O
   O38        1.0     0.714556      0.251374      0.768143     Biso  1.000000 O
   O39        1.0     0.715432      0.746450      0.721517     Biso  1.000000 O
   O40        1.0     0.715576      0.051776      0.271159     Biso  1.000000 O
   O41        1.0     0.757589      0.798133      0.287475     Biso  1.000000 O
   O42        1.0     0.757628      0.497842      0.773183     Biso  1.000000 O
   O43        1.0     0.762065      0.002689      0.716855     Biso  1.000000 O
   O44        1.0     0.762727      0.295794      0.222501     Biso  1.000000 O
   O45        1.0     0.851651      0.673508      0.008155     Biso  1.000000 O
   O46        1.0     0.857448      0.176964      0.507842     Biso  1.000000 O
   O47        1.0     0.858137      0.621466      0.508243     Biso  1.000000 O
   O48        1.0     0.859885      0.124705      0.008190     Biso  1.000000 O
